<?xml version="1.0" encoding="UTF-8"?>

<!-- generated on 2026-05-05 23:16:04 by Eclipse SUMO duarouter Version 1.12.0
<configuration xmlns:xsi="http://www.w3.org/2001/XMLSchema-instance" xsi:noNamespaceSchemaLocation="http://sumo.dlr.de/xsd/duarouterConfiguration.xsd">

    <input>
        <net-file value="cologne_sub.net.xml"/>
        <route-files value="trips.trips.xml"/>
    </input>

    <output>
        <output-file value="cologne_sub.rou.xml"/>
        <alternatives-output value="cologne_sub.rou.alt.xml"/>
    </output>

    <time>
        <begin value="0"/>
        <end value="3600"/>
    </time>

    <report>
        <no-warnings value="true"/>
        <ignore-errors value="true"/>
        <no-step-log value="true"/>
    </report>

</configuration>
-->

<routes xmlns:xsi="http://www.w3.org/2001/XMLSchema-instance" xsi:noNamespaceSchemaLocation="http://sumo.dlr.de/xsd/routes_file.xsd">
    <vehicle id="0" depart="0.00">
        <route edges="32111896#0 32111896#1 142518656#0 142518656#1 38527899#0 38527899#1 30743981 117679358#0 117679358#1 303244429#0 303244429#1 303244424 23568269#0 23568269#1 23568269#2 204025234#0 204025234#1 48587086#1 1075393377 1472032546 100132117#0 100132117#1 142518653#0 142518653#1 639959617 30743982 44037603#0 -30081449#3 -30081449#2 -30081449#1 -30081449#0"/>
    </vehicle>
    <vehicle id="4" depart="0.40">
        <route edges="23568269#1 23568269#2 204025234#0 204025234#1 48587086#1 1075393377 1472032546 100132117#0 100132117#1 142518653#0 142518653#1 639959617 30743982 44037603#0 -30081449#3 -30081449#2 -30081449#1"/>
    </vehicle>
    <vehicle id="7" depart="0.70">
        <route edges="32233474#0 32233474#1 32233474#2 32233474#3 142518656#1 38527899#0 38527899#1 30743981 117679358#0 117679358#1 303244429#0 303244429#1 303244424 23568269#0 23568269#1 23568269#2 204025234#0 204025234#1 48587086#1 1075393377 1472032546 100132117#0 100132117#1 142518653#0 142518653#1 639959617 30743982 44037603#0 -30081449#3 -30081449#2 -30081449#1 -30081449#0 -30078887 30078887 30081449#0"/>
    </vehicle>
    <vehicle id="8" depart="0.80">
        <route edges="142518652#3 32111896#0 32111896#1 142518656#0 142518656#1 38527899#0 38527899#1 30743981 117679358#0 117679358#1 303244429#0 303244429#1 303244424 303244422#0"/>
    </vehicle>
    <vehicle id="13" depart="1.30">
        <route edges="1075393377 1472032546 100132117#0 100132117#1 142518653#0 142518653#1 639959617 30743982 44037603#0 44037603#1 115844479#0 115844479#1 115844479#2 686245660 401880672 301750520#0 301750520#1 301750520#2 1471596242 250959563 115849681#0 115849681#1 250959560 47892504#0 47892504#1 1025138855#0"/>
    </vehicle>
    <vehicle id="15" depart="1.50">
        <route edges="44037603#1 32233474#0 32233474#1 32233474#2 32233474#3 142518656#1 38527899#0 38527899#1 30743981 117679358#0 117679358#1 303244429#0 303244429#1 303244424 23568269#0 23568269#1 23568269#2 146789538#0 146789538#1 145035674 23568275#0 23568275#1 37276375"/>
    </vehicle>
    <vehicle id="19" depart="1.90">
        <route edges="48587086#1 1075393377 1472032546 100132117#0 100132117#1 142518653#0 142518653#1 639959617 30743982 44037603#0 44037603#1 115844479#0 115844479#1 115844479#2 686245660 401880672 301750520#0 301750520#1"/>
    </vehicle>
    <vehicle id="24" depart="2.40">
        <route edges="318067901#2 32111896#0 32111896#1 142518656#0 142518656#1 38527899#0 38527899#1 30743981 117679358#0 117679358#1 303244429#0 303244429#1 303244424 23568269#0 23568269#1 23568269#2 204025234#0"/>
    </vehicle>
    <vehicle id="27" depart="2.70">
        <route edges="32111896#1 142518656#0 142518656#1 38527899#0 38527899#1 30743981 117679358#0 117679358#1 303244429#0"/>
    </vehicle>
    <vehicle id="33" depart="3.30">
        <route edges="142518653#0 142518653#1 639959617 30743982 44037603#0 -30081449#3 -30081449#2 -30081449#1"/>
    </vehicle>
    <vehicle id="38" depart="3.80">
        <route edges="48591706#0 48591706#1 204025234#0 204025234#1 48587086#1 1075393377 1472032546 100132117#0 100132117#1 142518653#0 142518653#1 639959617 30743982 44037603#0 44037603#1 32233474#0 32233474#1 32233474#2 32233474#3 142518656#1 38527899#0 38527899#1 30743981 117679358#0 117679358#1 303244429#0 303244429#1 303244424 23692033#0"/>
    </vehicle>
    <vehicle id="46" depart="4.60">
        <route edges="4400319 48587087 48587086#0 48587086#1 1075393377 1472032546 100132117#0 100132117#1 142518653#0 142518653#1 639959617 30743982 44037603#0 44037603#1 32233474#0 32233474#1 32233474#2 32233474#3 142518656#1 38527899#0 38527899#1 30743981 117679358#0 117679358#1 303244429#0 303244429#1 303244424 23568269#0 23568269#1 23568269#2 146789538#0 146789538#1 145035674 23568275#0"/>
    </vehicle>
    <vehicle id="51" depart="5.10">
        <route edges="322860621#0 322860621#1 322860621#2 322860621#3 303244424 23568269#0 23568269#1 23568269#2 204025234#0 204025234#1 48587086#1 1075393377 1472032546 100132117#0 100132117#1 142518653#0 142518653#1 639959617 30743982 44037603#0 44037603#1 115844479#0 115844479#1 115844479#2 686245660 401880672 301750520#0 301750520#1 301750520#2 1471596242 250959563"/>
    </vehicle>
    <vehicle id="57" depart="5.70">
        <route edges="48591705 48591706#0 48591706#1 204025234#0 204025234#1 48587086#1"/>
    </vehicle>
    <vehicle id="59" depart="5.90">
        <route edges="30743981 117679358#0 117679358#1 303244429#0 303244429#1 303244424 23568269#0 23568269#1 23568269#2 204025234#0 204025234#1 48587086#1 1075393377 1472032546 100132117#0 100132117#1 142518653#0 142518653#1 639959617 30743982 44037603#0 44037603#1 115844479#0 115844479#1 115844479#2 686245660 401880672 301750520#0 301750520#1 301750520#2 1471596242 250959563 245991947#0 245991947#1 1212391689 115849682"/>
    </vehicle>
    <vehicle id="60" depart="6.00">
        <route edges="38527899#0 38527899#1 30743981 117679358#0 117679358#1 303244429#0 303244429#1 303244424 23568269#0 23568269#1 23568269#2 204025234#0 204025234#1 48587086#1 1075393377 1472032546 100132117#0 100132117#1 142518653#0 142518653#1 639959617 30743982 44037603#0 44037603#1 115844479#0 115844479#1 115844479#2 686245660 401880672 301750520#0 301750520#1 301750520#2 1471596242 250959563"/>
    </vehicle>
    <vehicle id="61" depart="6.10">
        <route edges="401880672 301750520#0 301750520#1 301750520#2 1471596242 250959563 115849681#0 115849681#1 250959560"/>
    </vehicle>
    <vehicle id="68" depart="6.80">
        <route edges="100132117#1 142518653#0 142518653#1 639959617 30743982 44037603#0 44037603#1 115844479#0 115844479#1 115844479#2 686245660 401880672 301750520#0 301750520#1 301750520#2 1471596242 250959563 115849681#0 115849681#1 250959560 37873580#0"/>
    </vehicle>
    <vehicle id="69" depart="6.90">
        <route edges="38527899#0 38527899#1 30743981 117679358#0 117679358#1 303244429#0 303244429#1 303244424 23568269#0 23568269#1 23568269#2 204025234#0 204025234#1 48587086#1 1075393377 1472032546 100132117#0 100132117#1 142518653#0 142518653#1 639959617 30743982 44037603#0 44037603#1 115844479#0 115844479#1 115844479#2"/>
    </vehicle>
    <vehicle id="73" depart="7.30">
        <route edges="30081449#2 30081449#3 44037603#1 32233474#0 32233474#1 32233474#2 32233474#3 142518656#1 38527899#0 38527899#1 30743981 117679358#0 117679358#1 303244429#0 303244429#1 303244424 23568269#0 23568269#1 23568269#2 146789538#0 146789538#1 145035674 23568275#0 23568275#1 37276375"/>
    </vehicle>
    <vehicle id="74" depart="7.40">
        <route edges="142518652#0 142518652#1 142518652#2 142518652#3 32111896#0 32111896#1 142518656#0 142518656#1 1471082295#0 1471082295#1"/>
    </vehicle>
    <vehicle id="80" depart="8.00">
        <route edges="100132117#1 142518653#0 142518653#1 639959617 30743982"/>
    </vehicle>
    <vehicle id="82" depart="8.20">
        <route edges="48587086#0 48587086#1 1075393377 1472032546 100132117#0 100132117#1 142518653#0 142518653#1 639959617 30743982 44037603#0 44037603#1 32233474#0 32233474#1 32233474#2 32233474#3 142518656#1 38527899#0 38527899#1 30743981 117679358#0 117679358#1 303244429#0 303244429#1 -322860621#3"/>
    </vehicle>
    <vehicle id="83" depart="8.30">
        <route edges="142518653#1 639959617 30743982 44037603#0 44037603#1 32233474#0 32233474#1"/>
    </vehicle>
    <vehicle id="84" depart="8.40">
        <route edges="142518652#2 142518652#3 32111896#0 32111896#1 142518656#0 142518656#1 38527899#0 38527899#1 30743981 117679358#0 117679358#1 303244429#0 303244429#1 303244424 23568269#0 23568269#1 23568269#2 204025234#0 204025234#1 48587086#1 1075393377 1472032546 100132117#0 100132117#1 142518653#0 142518653#1 639959617 30743982 44037603#0 44037603#1 115844479#0 115844479#1 115844479#2"/>
    </vehicle>
    <vehicle id="85" depart="8.50">
        <route edges="5667165#0 5667165#1 5667165#2 48591705 48591706#0 48591706#1 204025234#0 204025234#1 48587086#1 1075393377 1472032546 100132117#0 100132117#1 142518653#0 142518653#1 639959617 30743982 44037603#0 44037603#1 115844479#0 115844479#1 115844479#2 686245660 401880672 301750520#0"/>
    </vehicle>
    <vehicle id="87" depart="8.70">
        <route edges="44037603#1 115844479#0 115844479#1 115844479#2 686245660 401880672 301750520#0 301750520#1 301750520#2 1471596242 250959563 245991947#0 245991947#1 1212391689"/>
    </vehicle>
    <vehicle id="88" depart="8.80">
        <route edges="1075393377 1472032546 100132117#0 100132117#1 142518653#0 142518653#1 639959617 30743982 44037603#0 44037603#1 32233474#0 32233474#1 32233474#2 32233474#3 142518656#1 38527899#0 38527899#1 30743981 117679358#0 117679358#1 303244429#0 303244429#1 303244424 23568269#0 23568269#1 23568269#2 146789538#0 146789538#1 145035674 23568275#0 23568275#1"/>
    </vehicle>
    <vehicle id="89" depart="8.90">
        <route edges="23568269#1 23568269#2 204025234#0 204025234#1 48587086#1 1075393377 1472032546 100132117#0 100132117#1 142518653#0 142518653#1 639959617 30743982 44037603#0 44037603#1 32233474#0 32233474#1 32233474#2 32233474#3 142518656#1 1471082295#0 1471082295#1 1471082295#2 23914009#0"/>
    </vehicle>
    <vehicle id="92" depart="9.20">
        <route edges="23015861#2 44037603#0 44037603#1 32233474#0 32233474#1 32233474#2 32233474#3 142518656#1 38527899#0 38527899#1 30743981 117679358#0 117679358#1 303244429#0 303244429#1 303244424 23568269#0 23568269#1 23568269#2 204025234#0 204025234#1 48587086#1 1075393377 1472032546"/>
    </vehicle>
    <vehicle id="95" depart="9.50">
        <route edges="23568269#1 23568269#2 146789538#0 146789538#1"/>
    </vehicle>
    <vehicle id="103" depart="10.30">
        <route edges="23015861#2 44037603#0 44037603#1 32233474#0 32233474#1 32233474#2 32233474#3 142518656#1 38527899#0 38527899#1 30743981 117679358#0 117679358#1 303244429#0 303244429#1 -322860621#3 -322860621#2 -322860621#1"/>
    </vehicle>
    <vehicle id="111" depart="11.10">
        <route edges="30081449#2 30081449#3 44037603#1 115844479#0 115844479#1 115844479#2 686245660 401880672 301750520#0 301750520#1 301750520#2 1471596242 250959563 115849681#0 115849681#1 250959560 37873580#0 37873580#1 4534408 37746015#0 37746015#1 37746015#2"/>
    </vehicle>
    <vehicle id="116" depart="11.60">
        <route edges="303244429#0 303244429#1 303244424 23568269#0 23568269#1 23568269#2 204025234#0 204025234#1 48587086#1 1075393377 1472032546 100132117#0 100132117#1 142518653#0 142518653#1 639959617 30743982 44037603#0 44037603#1 32233474#0 32233474#1 32233474#2"/>
    </vehicle>
    <vehicle id="117" depart="11.70">
        <route edges="142518653#1 639959617 30743982 44037603#0 44037603#1 115844479#0"/>
    </vehicle>
    <vehicle id="119" depart="11.90">
        <route edges="303244429#0 303244429#1"/>
    </vehicle>
    <vehicle id="120" depart="12.00">
        <route edges="23568269#1 23568269#2 204025234#0 204025234#1 48587086#1 1075393377 1472032546 100132117#0 100132117#1 142518653#0 142518653#1 639959617 30743982 44037603#0 44037603#1 115844479#0 115844479#1 115844479#2 686245660 401880672 301750520#0 301750520#1 301750520#2"/>
    </vehicle>
    <vehicle id="126" depart="12.60">
        <route edges="100132117#1 142518653#0 142518653#1 639959617 30743982 44037603#0 44037603#1 32233474#0 32233474#1 32233474#2 32233474#3 142518656#1 38527899#0 38527899#1 30743981 117679358#0 117679358#1 303244429#0 303244429#1 303244424 23692033#0"/>
    </vehicle>
    <vehicle id="131" depart="13.10">
        <route edges="204025234#1 48587086#1 1075393377 1472032546 100132117#0 100132117#1 142518653#0 142518653#1 639959617 30743982 44037603#0 44037603#1 32233474#0 32233474#1 32233474#2 32233474#3 142518656#1 38527899#0 38527899#1 30743981 117679358#0"/>
    </vehicle>
    <vehicle id="133" depart="13.30">
        <route edges="30743982 44037603#0 44037603#1 115844479#0 115844479#1 115844479#2 686245660"/>
    </vehicle>
    <vehicle id="134" depart="13.40">
        <route edges="32233474#0 32233474#1 32233474#2 32233474#3 142518656#1 38527899#0 38527899#1 30743981 117679358#0 117679358#1 303244429#0 303244429#1 -322860621#3 -322860621#2 -322860621#1 -322860621#0 -1472718127"/>
    </vehicle>
    <vehicle id="141" depart="14.10">
        <route edges="318067901#2 32111896#0 32111896#1 142518656#0 142518656#1 38527899#0 38527899#1 30743981 117679358#0 117679358#1 303244429#0 303244429#1 303244424 23568269#0 23568269#1 23568269#2 146789538#0 146789538#1 145035674"/>
    </vehicle>
    <vehicle id="144" depart="14.40">
        <route edges="23568269#1 23568269#2 146789538#0 146789538#1"/>
    </vehicle>
    <vehicle id="146" depart="14.60">
        <route edges="32111896#0 32111896#1 142518656#0 142518656#1 38527899#0 38527899#1 30743981 117679358#0 117679358#1 303244429#0 303244429#1 303244424 23568269#0 23568269#1 23568269#2 146789538#0 146789538#1 145035674"/>
    </vehicle>
    <vehicle id="148" depart="14.80">
        <route edges="23568269#2 204025234#0 204025234#1 48587086#1 1075393377 1472032546 100132117#0 100132117#1 142518653#0 142518653#1 639959617 30743982 44037603#0 44037603#1 32233474#0 32233474#1 32233474#2 32233474#3 142518656#1 38527899#0 38527899#1 30743981 117679358#0 117679358#1 303244429#0 303244429#1 -322860621#3 -322860621#2 -322860621#1 -322860621#0 -1472718127"/>
    </vehicle>
    <vehicle id="152" depart="15.20">
        <route edges="117679358#1 303244429#0 303244429#1 303244424 23568269#0 23568269#1 23568269#2 204025234#0 204025234#1 48587086#1 1075393377 1472032546 100132117#0 100132117#1 142518653#0 142518653#1 639959617 30743982 44037603#0 44037603#1 115844479#0 115844479#1 115844479#2"/>
    </vehicle>
    <vehicle id="156" depart="15.60">
        <route edges="142518656#1 38527899#0 38527899#1 30743981 117679358#0 117679358#1 303244429#0 303244429#1 303244424 23568269#0 23568269#1 23568269#2 204025234#0 204025234#1 48587086#1 1075393377 1472032546 100132117#0 100132117#1 142518653#0 142518653#1 639959617 30743982 44037603#0 44037603#1 115844479#0 115844479#1 115844479#2 686245660 401880672 301750520#0 301750520#1 301750520#2 1471596242 250959563 115849681#0 115849681#1 250959560 47892504#0 47892504#1 1025138855#0 1025138855#1"/>
    </vehicle>
    <vehicle id="158" depart="15.80">
        <route edges="23568083 136417821 1075393377 1472032546 100132117#0 100132117#1 142518653#0 142518653#1 639959617 30743982 44037603#0 44037603#1 32233474#0 32233474#1 32233474#2 32233474#3 142518656#1 38527899#0 38527899#1 30743981"/>
    </vehicle>
    <vehicle id="160" depart="16.00">
        <route edges="48587086#1 1075393377 1472032546 100132117#0 100132117#1 142518653#0 142518653#1 639959617"/>
    </vehicle>
    <vehicle id="162" depart="16.20">
        <route edges="-30081449#2 -30081449#1 -30081449#0 -30078887 30078887 30081449#0 30081449#1 30081449#2 30081449#3 44037603#1 115844479#0 115844479#1 115844479#2 686245660 401880672 301750520#0 301750520#1 301750520#2 1471596242 250959563 115849681#0 115849681#1 250959560 37873580#0 37873580#1 4534408 37746015#0"/>
    </vehicle>
    <vehicle id="166" depart="16.60">
        <route edges="4400318 23568083 136417821 1075393377"/>
    </vehicle>
    <vehicle id="168" depart="16.80">
        <route edges="142518652#3 32111896#0 32111896#1 142518656#0 142518656#1 38527899#0 38527899#1 30743981 117679358#0 117679358#1 303244429#0 303244429#1 303244424 23568269#0 23568269#1 23568269#2 204025234#0 204025234#1 48587086#1 1075393377 1472032546 100132117#0 100132117#1 142518653#0 142518653#1 639959617 30743982 44037603#0 44037603#1"/>
    </vehicle>
    <vehicle id="171" depart="17.10">
        <route edges="-30081449#2 -30081449#1 -30081449#0 -30078887 30078887 30081449#0 30081449#1 30081449#2 30081449#3 44037603#1 115844479#0 115844479#1 115844479#2 686245660 401880672 301750520#0 301750520#1 301750520#2 1471596242 250959563 245991947#0 245991947#1 1212391689"/>
    </vehicle>
    <vehicle id="176" depart="17.60">
        <route edges="5667165#0 5667165#1 5667165#2 48591705 48591706#0 48591706#1 204025234#0 204025234#1 48587086#1 1075393377 1472032546 100132117#0 100132117#1 142518653#0 142518653#1 639959617 30743982 44037603#0 44037603#1 115844479#0"/>
    </vehicle>
    <vehicle id="178" depart="17.80">
        <route edges="639959617 30743982 44037603#0 44037603#1 32233474#0 32233474#1 32233474#2 32233474#3 142518656#1 38527899#0 38527899#1 30743981 117679358#0 117679358#1 303244429#0 303244429#1 303244424 23568269#0 23568269#1 23568269#2 146789538#0 146789538#1 145035674"/>
    </vehicle>
    <vehicle id="187" depart="18.70">
        <route edges="204025234#0 204025234#1 48587086#1 1075393377 1472032546 100132117#0 100132117#1 142518653#0 142518653#1 639959617 30743982 44037603#0 44037603#1 32233474#0 32233474#1 32233474#2 32233474#3 142518656#1 38527899#0 38527899#1 30743981 117679358#0 117679358#1 303244429#0 303244429#1 -322860621#3"/>
    </vehicle>
    <vehicle id="194" depart="19.40">
        <route edges="5667165#0 5667165#1 5667165#2 48591705 48591706#0 48591706#1 204025234#0 204025234#1 48587086#1 1075393377 1472032546 100132117#0 100132117#1 142518653#0 142518653#1 639959617 30743982 44037603#0 44037603#1 32233474#0 32233474#1 32233474#2"/>
    </vehicle>
    <vehicle id="198" depart="19.80">
        <route edges="23568269#2 204025234#0 204025234#1 48587086#1 1075393377 1472032546 100132117#0 100132117#1 142518653#0 142518653#1 639959617 30743982 44037603#0 44037603#1 115844479#0 115844479#1 115844479#2 686245660 401880672 301750520#0 301750520#1"/>
    </vehicle>
    <vehicle id="199" depart="19.90">
        <route edges="32233474#0 32233474#1 32233474#2 32233474#3 142518656#1 38527899#0 38527899#1 30743981 117679358#0 117679358#1 303244429#0 303244429#1 303244424 23692033#0 23692033#1"/>
    </vehicle>
    <vehicle id="204" depart="20.40">
        <route edges="318067901#2 32111896#0 32111896#1 142518656#0 142518656#1 38527899#0 38527899#1 30743981 117679358#0 117679358#1 303244429#0 303244429#1 303244424 23568269#0 23568269#1 23568269#2 204025234#0 204025234#1 48587086#1 1075393377 1472032546"/>
    </vehicle>
    <vehicle id="205" depart="20.50">
        <route edges="4537881 117679363#0 117679363#1 160312592 30743981 117679358#0 117679358#1 303244429#0 303244429#1 303244424 23568269#0 23568269#1 23568269#2 204025234#0 204025234#1 48587086#1 1075393377 1472032546 100132117#0 100132117#1 142518653#0 142518653#1 639959617 30743982 44037603#0 44037603#1 115844479#0 115844479#1 115844479#2 686245660 401880672 301750520#0 301750520#1 301750520#2 1471596242 250959563 115849681#0 115849681#1 250959560 37873580#0 37873580#1 4534408 37746015#0 37746015#1 37746015#2"/>
    </vehicle>
    <vehicle id="207" depart="20.70">
        <route edges="142518652#0 142518652#1 142518652#2 142518652#3 32111896#0 32111896#1 142518656#0 142518656#1 38527899#0 38527899#1 30743981 117679358#0 117679358#1 303244429#0 303244429#1 303244424 23568269#0 23568269#1 23568269#2 204025234#0 204025234#1 48587086#1 1075393377 1472032546 100132117#0 100132117#1 142518653#0 142518653#1 639959617 30743982 44037603#0 -30081449#3 -30081449#2 -30081449#1 -30081449#0"/>
    </vehicle>
    <vehicle id="208" depart="20.80">
        <route edges="142518656#0 142518656#1 38527899#0 38527899#1 30743981 117679358#0 117679358#1 303244429#0 303244429#1 303244424 23568269#0 23568269#1 23568269#2 204025234#0 204025234#1 48587086#1 1075393377 1472032546 100132117#0 100132117#1 142518653#0 142518653#1 639959617 30743982 44037603#0 44037603#1 115844479#0 115844479#1 115844479#2 686245660 401880672 301750520#0 301750520#1 301750520#2 1471596242 250959563 245991947#0"/>
    </vehicle>
    <vehicle id="210" depart="21.00">
        <route edges="23568269#0 23568269#1 23568269#2 204025234#0 204025234#1 48587086#1 1075393377 1472032546 100132117#0 100132117#1 142518653#0 142518653#1 639959617 30743982"/>
    </vehicle>
    <vehicle id="214" depart="21.40">
        <route edges="37873580#1"/>
    </vehicle>
    <vehicle id="217" depart="21.70">
        <route edges="30078887 30081449#0 30081449#1 30081449#2 30081449#3 44037603#1 32233474#0 32233474#1 32233474#2 32233474#3 142518656#1 38527899#0 38527899#1 30743981 117679358#0 117679358#1 303244429#0 303244429#1 -322860621#3 -322860621#2 -322860621#1 -322860621#0"/>
    </vehicle>
    <vehicle id="220" depart="22.00">
        <route edges="32233474#2 32233474#3 142518656#1 38527899#0 38527899#1 30743981 117679358#0 117679358#1 303244429#0 303244429#1 303244424 23568269#0 23568269#1 23568269#2 204025234#0 204025234#1 48587086#1 1075393377 1472032546 100132117#0 100132117#1 142518653#0 142518653#1 639959617 30743982 44037603#0 44037603#1 115844479#0 115844479#1 115844479#2 686245660"/>
    </vehicle>
    <vehicle id="229" depart="22.90">
        <route edges="318067901#1 318067901#2 32111896#0 32111896#1 142518656#0 142518656#1 38527899#0 38527899#1 30743981 117679358#0 117679358#1 303244429#0 303244429#1 303244424 23568269#0 23568269#1 23568269#2 146789538#0 146789538#1"/>
    </vehicle>
    <vehicle id="232" depart="23.20">
        <route edges="30081449#2 30081449#3 44037603#1 115844479#0 115844479#1 115844479#2 686245660 401880672 301750520#0 301750520#1 301750520#2 1471596242 250959563 115849681#0"/>
    </vehicle>
    <vehicle id="235" depart="23.50">
        <route edges="23568083 136417821 1075393377 1472032546 100132117#0 100132117#1 142518653#0 142518653#1 639959617 30743982 44037603#0 -30081449#3 -30081449#2 -30081449#1 -30081449#0 -30078887 30078887 30081449#0"/>
    </vehicle>
    <vehicle id="239" depart="23.90">
        <route edges="48587086#0 48587086#1 1075393377 1472032546 100132117#0 100132117#1 142518653#0 142518653#1 639959617 30743982 44037603#0 44037603#1 115844479#0 115844479#1 115844479#2 686245660 401880672 301750520#0 301750520#1 301750520#2 1471596242 250959563 115849681#0 115849681#1 250959560 37873580#0"/>
    </vehicle>
    <vehicle id="241" depart="24.10">
        <route edges="160312592 30743981 117679358#0 117679358#1 303244429#0 303244429#1 303244424 23568269#0 23568269#1 23568269#2 204025234#0 204025234#1 48587086#1 1075393377 1472032546 100132117#0 100132117#1 142518653#0 142518653#1 639959617 30743982 44037603#0 44037603#1 115844479#0 115844479#1 115844479#2 686245660 401880672 301750520#0 301750520#1 301750520#2 1471596242 250959563 115849681#0 115849681#1 250959560 37873580#0 37873580#1 37873580#2 1011698907 37873577"/>
    </vehicle>
    <vehicle id="243" depart="24.30">
        <route edges="23568269#1 23568269#2 204025234#0 204025234#1 48587086#1 1075393377 1472032546 100132117#0 100132117#1 142518653#0 142518653#1 639959617 30743982 44037603#0 44037603#1 115844479#0 115844479#1 115844479#2 686245660 401880672 301750520#0 301750520#1 301750520#2 1471596242 250959563 115849681#0 115849681#1 250959560 37873580#0 37873580#1 4534408 37746015#0 37746015#1 37746015#2"/>
    </vehicle>
    <vehicle id="244" depart="24.40">
        <route edges="30081449#3 44037603#1 32233474#0 32233474#1 32233474#2 32233474#3 142518656#1 38527899#0 38527899#1 30743981 117679358#0 117679358#1 303244429#0 303244429#1 303244424"/>
    </vehicle>
    <vehicle id="247" depart="24.70">
        <route edges="1472032546 100132117#0 100132117#1 142518653#0 142518653#1 639959617 30743982 44037603#0 44037603#1 32233474#0 32233474#1 32233474#2"/>
    </vehicle>
    <vehicle id="248" depart="24.80">
        <route edges="23568083 136417821 1075393377 1472032546 100132117#0 100132117#1 142518653#0 142518653#1 639959617 30743982 44037603#0 44037603#1 32233474#0 32233474#1 32233474#2 32233474#3 142518656#1 38527899#0 38527899#1 30743981 117679358#0 117679358#1"/>
    </vehicle>
    <vehicle id="250" depart="25.00">
        <route edges="318067901#0 318067901#1 318067901#2 32111896#0 32111896#1 142518656#0 142518656#1 38527899#0 38527899#1 30743981 117679358#0 117679358#1 303244429#0 303244429#1 303244424 23568269#0 23568269#1 23568269#2 204025234#0 204025234#1 48587086#1 1075393377 1472032546 100132117#0 100132117#1 142518653#0 142518653#1 639959617 30743982 44037603#0 -30081449#3 -30081449#2 -30081449#1"/>
    </vehicle>
    <vehicle id="259" depart="25.90">
        <route edges="-30081449#1 -30081449#0 -30078887 30078887 30081449#0 30081449#1 30081449#2 30081449#3 44037603#1 115844479#0 115844479#1 115844479#2 686245660 401880672 301750520#0 301750520#1 301750520#2 1471596242 250959563"/>
    </vehicle>
    <vehicle id="261" depart="26.10">
        <route edges="32233474#0 32233474#1 32233474#2 32233474#3 142518656#1 38527899#0"/>
    </vehicle>
    <vehicle id="262" depart="26.20">
        <route edges="32233474#0 32233474#1 32233474#2 32233474#3 142518656#1 38527899#0 38527899#1 30743981 117679358#0 117679358#1 303244429#0 303244429#1 303244424 23568269#0 23568269#1 23568269#2 204025234#0 204025234#1 48587086#1 1075393377 1472032546 100132117#0 100132117#1 142518653#0 142518653#1 639959617 30743982 44037603#0 44037603#1 115844479#0 115844479#1 115844479#2 686245660 401880672 301750520#0 301750520#1 301750520#2 1471596242 250959563 115849681#0 115849681#1 250959560 37873580#0 37873580#1 37873580#2 1011698907 37873577"/>
    </vehicle>
    <vehicle id="264" depart="26.40">
        <route edges="-30081449#2 -30081449#1 -30081449#0 -30078887 30078887 30081449#0 30081449#1 30081449#2 30081449#3 44037603#1 115844479#0 115844479#1 115844479#2 686245660 401880672 301750520#0 301750520#1 301750520#2 1471596242 250959563 245991947#0 245991947#1 1212391689 115849682"/>
    </vehicle>
    <vehicle id="267" depart="26.70">
        <route edges="322860621#3 303244424 23568269#0 23568269#1 23568269#2 204025234#0 204025234#1 48587086#1 1075393377 1472032546 100132117#0 100132117#1 142518653#0 142518653#1 639959617 30743982 44037603#0 44037603#1 115844479#0 115844479#1 115844479#2 686245660 401880672 301750520#0 301750520#1 301750520#2 1471596242 250959563 115849681#0 115849681#1 250959560 37873580#0 37873580#1"/>
    </vehicle>
    <vehicle id="275" depart="27.50">
        <route edges="322860621#2 322860621#3 303244424 23568269#0 23568269#1 23568269#2 204025234#0 204025234#1 48587086#1 1075393377 1472032546 100132117#0 100132117#1 142518653#0 142518653#1 639959617 30743982"/>
    </vehicle>
    <vehicle id="276" depart="27.60">
        <route edges="115844479#0 115844479#1 115844479#2 686245660 401880672 301750520#0 301750520#1 301750520#2 1471596242 250959563 115849681#0 115849681#1 250959560 37873580#0 37873580#1"/>
    </vehicle>
    <vehicle id="280" depart="28.00">
        <route edges="23568269#2 204025234#0 204025234#1"/>
    </vehicle>
    <vehicle id="284" depart="28.40">
        <route edges="318067901#2 245991949#0 245991949#1 245991949#2 245991949#3 301750520#0 301750520#1 301750520#2 1471596242 250959563 115849681#0 115849681#1 250959560 47892504#0"/>
    </vehicle>
    <vehicle id="288" depart="28.80">
        <route edges="30081449#2 30081449#3 44037603#1 115844479#0 115844479#1 115844479#2 686245660 401880672 301750520#0 301750520#1 301750520#2 1471596242 250959563 245991947#0 245991947#1"/>
    </vehicle>
    <vehicle id="289" depart="28.90">
        <route edges="23568275#0 23568275#1 37276375"/>
    </vehicle>
    <vehicle id="296" depart="29.60">
        <route edges="142518652#2 142518652#3 32111896#0 32111896#1 142518656#0 142518656#1 38527899#0 38527899#1 30743981 117679358#0 117679358#1 303244429#0 303244429#1 303244424 23568269#0 23568269#1 23568269#2 204025234#0 204025234#1 48587086#1 1075393377 1472032546 100132117#0 100132117#1 142518653#0 142518653#1 639959617 30743982 44037603#0 44037603#1 115844479#0 115844479#1 115844479#2 686245660 401880672"/>
    </vehicle>
    <vehicle id="298" depart="29.80">
        <route edges="322860621#3 303244424 23568269#0 23568269#1 23568269#2 146789538#0 146789538#1"/>
    </vehicle>
    <vehicle id="301" depart="30.10">
        <route edges="245991949#1 245991949#2 245991949#3 301750520#0 301750520#1 301750520#2 1471596242 250959563 115849681#0 115849681#1 250959560 37873580#0 37873580#1 37873580#2 1011698907 37873577"/>
    </vehicle>
    <vehicle id="305" depart="30.50">
        <route edges="322860621#2 322860621#3 303244424 23568269#0 23568269#1 23568269#2 204025234#0 204025234#1 48587086#1 1075393377 1472032546 100132117#0 100132117#1 142518653#0 142518653#1 639959617 30743982 44037603#0 44037603#1 32233474#0 32233474#1 32233474#2 32233474#3 142518656#1 1471082295#0"/>
    </vehicle>
    <vehicle id="307" depart="30.70">
        <route edges="30081449#1 30081449#2 30081449#3 44037603#1 32233474#0 32233474#1 32233474#2 32233474#3 142518656#1 38527899#0 38527899#1 30743981 117679358#0 117679358#1 303244429#0 303244429#1 303244424 23568269#0 23568269#1 23568269#2 146789538#0 146789538#1 145035674 23568275#0"/>
    </vehicle>
    <vehicle id="310" depart="31.00">