<?xml version="1.0" encoding="UTF-8"?>

<!-- generated on 2026-05-05 18:51:12 by Eclipse SUMO netconvert Version 1.12.0
<configuration xmlns:xsi="http://www.w3.org/2001/XMLSchema-instance" xsi:noNamespaceSchemaLocation="http://sumo.dlr.de/xsd/netconvertConfiguration.xsd">

    <input>
        <sumo-net-file value="/root/llm-traffic/data/cologne.net.xml"/>
    </input>

    <output>
        <output-file value="/root/llm-traffic/data/cologne_sub.net.xml"/>
    </output>

    <processing>
        <geometry.min-radius.fix.railways value="false"/>
        <geometry.max-grade.fix value="false"/>
        <offset.disable-normalization value="true"/>
        <lefthand value="false"/>
    </processing>

    <edge_removal>
        <keep-edges.in-boundary value="1400,400,2000,500"/>
    </edge_removal>

    <junctions>
        <no-turnarounds value="true"/>
        <junctions.corner-detail value="5"/>
        <junctions.limit-turn-speed value="5.5"/>
        <rectangular-lane-cut value="false"/>
    </junctions>

    <pedestrian>
        <walkingareas value="false"/>
    </pedestrian>

    <report>
        <aggregate-warnings value="5"/>
    </report>

</configuration>
-->

<net version="1.9" junctionCornerDetail="5" limitTurnSpeed="5.50" xmlns:xsi="http://www.w3.org/2001/XMLSchema-instance" xsi:noNamespaceSchemaLocation="http://sumo.dlr.de/xsd/net_file.xsd">

    <location netOffset="-354752.31,-5644161.16" convBoundary="1334.75,287.66,2056.77,621.19" origBoundary="6.932452,50.884661,7.053506,50.949402" projParameter="+proj=utm +zone=32 +ellps=WGS84 +datum=WGS84 +units=m +no_defs"/>

    <type id="highway.bridleway" priority="1" numLanes="1" speed="2.78" allow="pedestrian" oneway="1" width="2.00"/>
    <type id="highway.bus_guideway" priority="1" numLanes="1" speed="27.78" allow="bus" oneway="1"/>
    <type id="highway.cycleway" priority="1" numLanes="1" speed="8.33" allow="bicycle" oneway="0" width="1.00"/>
    <type id="highway.footway" priority="1" numLanes="1" speed="2.78" allow="pedestrian" oneway="1" width="2.00"/>
    <type id="highway.ford" priority="1" numLanes="1" speed="2.78" allow="army" oneway="0"/>
    <type id="highway.living_street" priority="2" numLanes="1" speed="2.78" disallow="tram rail_urban rail rail_electric rail_fast ship" oneway="0"/>
    <type id="highway.motorway" priority="14" numLanes="2" speed="39.44" allow="private emergency authority army vip passenger hov taxi bus coach delivery truck trailer motorcycle evehicle custom1 custom2" oneway="1"/>
    <type id="highway.motorway_link" priority="9" numLanes="1" speed="22.22" allow="private emergency authority army vip passenger hov taxi bus coach delivery truck trailer motorcycle evehicle custom1 custom2" oneway="1"/>
    <type id="highway.path" priority="1" numLanes="1" speed="2.78" allow="pedestrian bicycle" oneway="0" width="2.00"/>
    <type id="highway.pedestrian" priority="1" numLanes="1" speed="2.78" allow="pedestrian" oneway="1" width="2.00"/>
    <type id="highway.primary" priority="12" numLanes="2" speed="27.78" disallow="tram rail_urban rail rail_electric rail_fast ship" oneway="0"/>
    <type id="highway.primary_link" priority="7" numLanes="1" speed="22.22" disallow="tram rail_urban rail rail_electric rail_fast ship" oneway="0"/>
    <type id="highway.raceway" priority="15" numLanes="2" speed="83.33" allow="vip" oneway="0"/>
    <type id="highway.residential" priority="3" numLanes="1" speed="13.89" disallow="tram rail_urban rail rail_electric rail_fast ship" oneway="0"/>
    <type id="highway.secondary" priority="11" numLanes="1" speed="27.78" disallow="tram rail_urban rail rail_electric rail_fast ship" oneway="0"/>
    <type id="highway.secondary_link" priority="6" numLanes="1" speed="22.22" disallow="tram rail_urban rail rail_electric rail_fast ship" oneway="0"/>
    <type id="highway.service" priority="1" numLanes="1" speed="5.56" allow="pedestrian delivery bicycle" oneway="0"/>
    <type id="highway.stairs" priority="1" numLanes="1" speed="1.39" allow="pedestrian" oneway="1" width="2.00"/>
    <type id="highway.step" priority="1" numLanes="1" speed="1.39" allow="pedestrian" oneway="1" width="2.00"/>
    <type id="highway.steps" priority="1" numLanes="1" speed="1.39" allow="pedestrian" oneway="1" width="2.00"/>
    <type id="highway.tertiary" priority="10" numLanes="1" speed="22.22" disallow="tram rail_urban rail rail_electric rail_fast ship" oneway="0"/>
    <type id="highway.tertiary_link" priority="5" numLanes="1" speed="22.22" disallow="tram rail_urban rail rail_electric rail_fast ship" oneway="0"/>
    <type id="highway.track" priority="1" numLanes="1" speed="5.56" allow="pedestrian motorcycle moped bicycle" oneway="0"/>
    <type id="highway.trunk" priority="13" numLanes="2" speed="27.78" disallow="pedestrian bicycle tram rail_urban rail rail_electric rail_fast ship" oneway="0"/>
    <type id="highway.trunk_link" priority="8" numLanes="1" speed="22.22" disallow="pedestrian bicycle tram rail_urban rail rail_electric rail_fast ship" oneway="0"/>
    <type id="highway.unclassified" priority="4" numLanes="1" speed="13.89" disallow="tram rail_urban rail rail_electric rail_fast ship" oneway="0"/>
    <type id="highway.unsurfaced" priority="1" numLanes="1" speed="8.33" disallow="tram rail_urban rail rail_electric rail_fast ship" oneway="0"/>
    <type id="railway.highspeed" priority="21" numLanes="1" speed="69.44" allow="rail_fast" oneway="1"/>
    <type id="railway.light_rail" priority="19" numLanes="1" speed="27.78" allow="rail_urban" oneway="1"/>
    <type id="railway.preserved" priority="16" numLanes="1" speed="27.78" allow="rail" oneway="1"/>
    <type id="railway.rail" priority="20" numLanes="1" speed="44.44" allow="rail" oneway="1"/>
    <type id="railway.subway" priority="18" numLanes="1" speed="27.78" allow="rail_urban" oneway="1"/>
    <type id="railway.tram" priority="17" numLanes="1" speed="13.89" allow="tram" oneway="1"/>

    <edge id=":10292174825_0" function="internal">
        <lane id=":10292174825_0_0" index="0" allow="rail_urban" speed="13.89" length="9.49" shape="1774.27,459.99 1783.16,463.31"/>
    </edge>
    <edge id=":10292174825_1" function="internal">
        <lane id=":10292174825_1_0" index="0" disallow="pedestrian tram rail_urban rail rail_electric rail_fast ship" speed="13.89" length="5.20" shape="1776.56,462.99 1776.89,461.46 1777.11,460.41 1777.40,459.37 1777.89,457.88"/>
        <lane id=":10292174825_1_1" index="1" disallow="pedestrian tram rail_urban rail rail_electric rail_fast ship" speed="13.89" length="5.20" shape="1779.69,463.67 1780.01,462.19 1780.23,461.17 1780.51,460.17 1780.98,458.73"/>
    </edge>
    <edge id=":10292174826_0" function="internal">
        <lane id=":10292174826_0_0" index="0" disallow="tram rail_urban rail rail_electric rail_fast ship" speed="6.33" length="5.25" shape="1764.42,453.17 1764.88,454.79 1765.02,456.16 1764.82,457.30 1764.30,458.19"/>
    </edge>
    <edge id=":10292174826_1" function="internal">
        <lane id=":10292174826_1_0" index="0" allow="rail_urban" speed="13.89" length="6.01" shape="1761.23,455.64 1766.97,457.42"/>
    </edge>
    <edge id=":10292174827_0" function="internal">
        <lane id=":10292174827_0_0" index="0" allow="rail_urban" speed="13.89" length="9.93" shape="1782.34,467.05 1773.05,463.54"/>
    </edge>
    <edge id=":10292174827_1" function="internal">
        <lane id=":10292174827_1_0" index="0" disallow="pedestrian tram rail_urban rail rail_electric rail_fast ship" speed="13.89" length="3.87" shape="1775.69,466.96 1776.52,463.19"/>
        <lane id=":10292174827_1_1" index="1" disallow="pedestrian tram rail_urban rail rail_electric rail_fast ship" speed="13.89" length="3.87" shape="1778.82,467.65 1779.65,463.87"/>
    </edge>
    <edge id=":10292174828_0" function="internal">
        <lane id=":10292174828_0_0" index="0" allow="rail_urban" speed="13.89" length="6.92" shape="1765.33,460.72 1758.70,458.73"/>
    </edge>
    <edge id=":10292174828_1" function="internal">
        <lane id=":10292174828_1_0" index="0" disallow="tram rail_urban rail rail_electric rail_fast ship" speed="10.20" length="3.51" shape="1764.17,458.34 1762.34,461.34"/>
    </edge>
    <edge id=":1039540179_0" function="internal">
        <lane id=":1039540179_0_0" index="0" disallow="tram rail_urban rail rail_electric rail_fast ship" speed="27.78" length="1.20" shape="1962.59,398.88 1961.54,398.57"/>
        <lane id=":1039540179_0_1" index="1" disallow="tram rail_urban rail rail_electric rail_fast ship" speed="27.78" length="1.20" shape="1962.22,402.06 1960.96,401.72"/>
    </edge>
    <edge id=":10991992811_0" function="internal">
        <lane id=":10991992811_0_0" index="0" disallow="pedestrian tram rail_urban rail rail_electric rail_fast ship" speed="13.89" length="5.10" shape="1826.63,444.96 1831.75,445.14"/>
        <lane id=":10991992811_0_1" index="1" disallow="pedestrian tram rail_urban rail rail_electric rail_fast ship" speed="13.89" length="5.10" shape="1826.54,448.15 1831.61,448.34"/>
    </edge>
    <edge id=":10996639693_0" function="internal">
        <lane id=":10996639693_0_0" index="0" disallow="tram rail_urban rail rail_electric rail_fast ship" speed="2.78" length="7.84" shape="1839.20,429.40 1838.87,431.53 1837.93,433.03 1836.40,433.90 1834.26,434.14"/>
    </edge>
    <edge id=":10996639693_1" function="internal">
        <lane id=":10996639693_1_0" index="0" disallow="tram rail_urban rail rail_electric rail_fast ship" speed="2.78" length="2.61" shape="1834.35,430.95 1835.07,430.86 1835.58,430.57 1835.89,430.07 1836.00,429.37"/>
    </edge>
    <edge id=":11010631338_0" function="internal">
        <lane id=":11010631338_0_0" index="0" allow="pedestrian delivery bicycle" speed="5.56" length="0.31" shape="1798.59,421.31 1798.58,420.99"/>
    </edge>
    <edge id=":11010631338_1" function="internal">
        <lane id=":11010631338_1_0" index="0" allow="pedestrian delivery bicycle" speed="5.56" length="0.26" shape="1801.77,420.90 1801.78,421.16"/>
    </edge>
    <edge id=":11232638418_0" function="internal">
        <lane id=":11232638418_0_0" index="0" allow="pedestrian bicycle" speed="2.78" length="3.35" width="2.00" shape="1832.88,434.10 1831.76,434.17 1830.97,434.45 1830.49,434.93 1830.33,435.63"/>
    </edge>
    <edge id=":11232638418_1" function="internal">
        <lane id=":11232638418_1_0" index="0" disallow="tram rail_urban rail rail_electric rail_fast ship" speed="2.78" length="7.00" shape="1832.88,434.10 1825.88,433.89"/>
    </edge>
    <edge id=":11232638418_2" function="internal">
        <lane id=":11232638418_2_0" index="0" disallow="tram rail_urban rail rail_electric rail_fast ship" speed="2.78" length="6.98" shape="1825.99,430.69 1832.97,430.91"/>
    </edge>
    <edge id=":11232638418_3" function="internal">
        <lane id=":11232638418_3_0" index="0" allow="pedestrian bicycle" speed="2.78" length="2.55" width="2.00" shape="1825.99,430.69 1827.89,431.05 1828.40,431.40"/>
    </edge>
    <edge id=":11232638418_7" function="internal">
        <lane id=":11232638418_7_0" index="0" allow="pedestrian bicycle" speed="2.78" length="4.90" width="2.00" shape="1828.40,431.40 1829.25,432.00 1830.06,433.52 1830.33,435.63"/>
    </edge>
    <edge id=":11232638418_4" function="internal">
        <lane id=":11232638418_4_0" index="0" allow="pedestrian bicycle" speed="2.78" length="3.36" shape="1828.33,435.62 1828.18,434.89 1827.72,434.36 1826.96,434.03 1825.88,433.89"/>
    </edge>
    <edge id=":11232638418_5" function="internal">
        <lane id=":11232638418_5_0" index="0" allow="pedestrian bicycle" speed="2.78" length="7.59" shape="1828.33,435.62 1828.63,433.51 1829.50,432.02 1830.95,431.15 1832.97,430.91"/>
    </edge>
    <edge id=":11232638418_6" function="internal">
        <lane id=":11232638418_6_0" index="0" allow="pedestrian bicycle" speed="2.78" length="2.92" width="2.00" shape="1828.33,435.62 1828.83,434.87 1829.33,434.63 1829.83,434.88 1830.33,435.63"/>
    </edge>
    <edge id=":1131024116_0" function="internal">
        <lane id=":1131024116_0_0" index="0" allow="pedestrian bicycle" speed="2.78" length="3.46" width="2.00" shape="1946.85,413.98 1946.06,413.22 1945.30,412.84 1944.57,412.84 1943.88,413.22"/>
    </edge>
    <edge id=":1131024116_1" function="internal">
        <lane id=":1131024116_1_0" index="0" allow="pedestrian bicycle" speed="2.78" length="5.98" width="2.00" shape="1946.85,413.98 1945.67,412.65 1944.90,411.65 1944.47,410.52 1944.29,408.80"/>
    </edge>
    <edge id=":1131024116_2" function="internal">
        <lane id=":1131024116_2_0" index="0" allow="pedestrian bicycle" speed="2.78" length="2.92" width="2.00" shape="1946.85,413.98 1946.74,413.09 1946.96,412.57 1947.50,412.44 1948.37,412.69"/>
    </edge>
    <edge id=":1131024116_3" function="internal">
        <lane id=":1131024116_3_0" index="0" allow="pedestrian bicycle" speed="2.78" length="4.62" width="2.00" shape="1946.29,408.74 1946.44,410.06 1946.81,410.91 1947.45,411.67 1948.37,412.69"/>
    </edge>
    <edge id=":1131024116_4" function="internal">
        <lane id=":1131024116_4_0" index="0" allow="pedestrian bicycle" speed="2.78" length="5.26" width="2.00" shape="1946.29,408.74 1946.17,409.92 1945.73,411.06 1944.96,412.16 1943.88,413.22"/>
    </edge>
    <edge id=":1131024116_5" function="internal">
        <lane id=":1131024116_5_0" index="0" allow="pedestrian bicycle" speed="2.78" length="2.92" width="2.00" shape="1946.29,408.74 1945.82,409.51 1945.32,409.77 1944.82,409.53 1944.29,408.80"/>
    </edge>
    <edge id=":1131024116_6" function="internal">
        <lane id=":1131024116_6_0" index="0" allow="pedestrian bicycle" speed="2.78" length="3.46" width="2.00" shape="1942.60,411.68 1943.35,410.96 1943.89,410.23 1944.20,409.51 1944.29,408.80"/>
    </edge>
    <edge id=":1131024116_7" function="internal">
        <lane id=":1131024116_7_0" index="0" allow="pedestrian bicycle" speed="2.78" length="6.66" width="2.00" shape="1942.60,411.68 1944.03,410.84 1945.48,410.73 1946.92,411.34 1948.37,412.69"/>
    </edge>
    <edge id=":1131024116_8" function="internal">
        <lane id=":1131024116_8_0" index="0" allow="pedestrian bicycle" speed="2.78" length="2.92" width="2.00" shape="1942.60,411.68 1943.49,411.59 1944.00,411.81 1944.13,412.35 1943.88,413.22"/>
    </edge>
    <edge id=":1131024117_0" function="internal">
        <lane id=":1131024117_0_0" index="0" allow="bicycle" speed="4.47" length="3.64" shape="1943.73,413.35 1942.94,414.15 1942.51,414.95 1942.45,415.73 1942.74,416.50"/>
    </edge>
    <edge id=":1131024117_1" function="internal">
        <lane id=":1131024117_1_0" index="0" allow="pedestrian bicycle" speed="2.78" length="9.02" width="2.00" shape="1943.73,413.35 1941.67,415.05 1940.21,416.17 1938.71,417.22 1936.47,418.69"/>
    </edge>
    <edge id=":1131024117_2" function="internal">
        <lane id=":1131024117_2_0" index="0" allow="pedestrian bicycle" speed="2.78" length="2.40" width="2.00" shape="1943.73,413.35 1942.83,413.44 1942.32,413.22 1942.19,412.68 1942.30,412.31"/>
    </edge>
    <edge id=":1131024117_10" function="internal">
        <lane id=":1131024117_10_0" index="0" allow="pedestrian bicycle" speed="2.78" length="0.52" width="2.00" shape="1942.30,412.31 1942.44,411.81"/>
    </edge>
    <edge id=":1131024117_3" function="internal">
        <lane id=":1131024117_3_0" index="0" allow="bicycle" speed="4.66" length="4.17" width="2.00" shape="1938.84,411.17 1939.73,412.03 1940.63,412.42 1941.53,412.35 1942.44,411.81"/>
    </edge>
    <edge id=":1131024117_4" function="internal">
        <lane id=":1131024117_4_0" index="0" disallow="pedestrian tram rail_urban rail rail_electric rail_fast ship" speed="13.89" length="6.41" shape="1938.84,411.17 1940.09,412.69 1940.92,413.75 1941.69,414.85 1942.74,416.50"/>
        <lane id=":1131024117_4_1" index="1" disallow="pedestrian tram rail_urban rail rail_electric rail_fast ship" speed="13.89" length="6.41" shape="1936.36,413.19 1937.53,414.61 1938.31,415.60 1939.04,416.64 1940.02,418.19"/>
    </edge>
    <edge id=":1131024117_6" function="internal">
        <lane id=":1131024117_6_0" index="0" allow="bicycle" speed="5.41" length="6.37" width="2.00" shape="1936.36,413.19 1937.48,414.89 1937.86,416.38 1937.53,417.65 1936.47,418.69"/>
    </edge>
    <edge id=":1131024117_7" function="internal">
        <lane id=":1131024117_7_0" index="0" allow="pedestrian bicycle" speed="2.78" length="8.80" width="2.00" shape="1935.37,417.03 1937.55,415.59 1939.02,414.57 1940.43,413.48 1942.44,411.81"/>
    </edge>
    <edge id=":1131024117_8" function="internal">
        <lane id=":1131024117_8_0" index="0" allow="bicycle" speed="5.04" length="0.73" shape="1935.37,417.03 1936.03,416.72"/>
    </edge>
    <edge id=":1131024117_9" function="internal">
        <lane id=":1131024117_9_0" index="0" allow="pedestrian bicycle" speed="2.78" length="2.39" width="2.00" shape="1935.37,417.03 1936.27,417.03 1936.75,417.31 1936.82,417.86 1936.68,418.20"/>
    </edge>
    <edge id=":1131024117_11" function="internal">
        <lane id=":1131024117_11_0" index="0" allow="bicycle" speed="5.04" length="4.77" shape="1936.03,416.72 1936.70,416.41 1937.93,416.39 1939.03,416.99 1940.02,418.19"/>
    </edge>
    <edge id=":1131024117_12" function="internal">
        <lane id=":1131024117_12_0" index="0" allow="pedestrian bicycle" speed="2.78" length="0.53" width="2.00" shape="1936.68,418.20 1936.47,418.69"/>
    </edge>
    <edge id=":1276827889_0" function="internal">
        <lane id=":1276827889_0_0" index="0" allow="delivery bicycle" speed="5.56" length="0.44" shape="1548.16,444.59 1548.57,444.43"/>
    </edge>
    <edge id=":1276827893_0" function="internal">
        <lane id=":1276827893_0_0" index="0" allow="delivery bicycle" speed="5.56" length="0.54" shape="1476.47,422.17 1476.61,422.09 1476.71,422.05 1476.82,422.02 1476.98,422.00"/>
    </edge>
    <edge id=":1276827896_0" function="internal">
        <lane id=":1276827896_0_0" index="0" allow="delivery bicycle" speed="4.71" length="7.06" shape="1497.19,475.29 1495.34,476.67 1494.85,477.79 1495.73,478.65 1497.95,479.25"/>
    </edge>
    <edge id=":1276827896_1" function="internal">
        <lane id=":1276827896_1_0" index="0" allow="delivery bicycle" speed="5.56" length="7.89" shape="1497.19,475.29 1495.19,476.51 1493.83,477.36 1492.43,478.14 1490.34,479.19"/>
    </edge>
    <edge id=":12880735921_0" function="internal">
        <lane id=":12880735921_0_0" index="0" allow="pedestrian bicycle" speed="2.78" length="4.19" width="2.00" shape="1427.20,435.10 1431.16,433.72"/>
    </edge>
    <edge id=":12880735921_1" function="internal">
        <lane id=":12880735921_1_0" index="0" allow="bicycle" speed="5.07" length="3.04" width="1.00" shape="1427.36,435.58 1428.17,435.38 1428.92,435.37 1429.61,435.56 1430.25,435.93"/>
    </edge>
    <edge id=":12880917593_0" function="internal">
        <lane id=":12880917593_0_0" index="0" allow="delivery bicycle" speed="8.42" length="6.25" shape="1551.38,439.15 1550.07,437.81 1549.13,436.77 1548.07,436.13 1546.35,436.00"/>
    </edge>
    <edge id=":12880917593_1" function="internal">
        <lane id=":12880917593_1_0" index="0" disallow="pedestrian tram rail_urban rail rail_electric rail_fast ship" speed="13.89" length="6.70" shape="1553.03,435.57 1546.35,436.00"/>
        <lane id=":12880917593_1_1" index="1" disallow="pedestrian tram rail_urban rail rail_electric rail_fast ship" speed="13.89" length="6.70" shape="1552.83,432.37 1546.14,432.80"/>
    </edge>
    <edge id=":12880917595_0" function="internal">
        <lane id=":12880917595_0_0" index="0" allow="pedestrian delivery bicycle" speed="5.56" length="3.25" shape="1557.58,440.54 1554.59,441.82"/>
    </edge>
    <edge id=":12880917595_1" function="internal">
        <lane id=":12880917595_1_0" index="0" allow="pedestrian delivery bicycle" speed="5.56" length="6.53" shape="1557.58,440.54 1556.05,440.96 1554.53,440.89 1553.03,440.33 1551.53,439.28"/>
    </edge>
    <edge id=":12994821204_0" function="internal">
        <lane id=":12994821204_0_0" index="0" allow="pedestrian bicycle" speed="2.78" length="0.29" width="2.00" shape="1425.08,470.58 1424.80,470.66"/>
    </edge>
    <edge id=":12994821263_0" function="internal">
        <lane id=":12994821263_0_0" index="0" allow="pedestrian bicycle" speed="2.78" length="0.76" width="2.00" shape="1419.13,472.14 1419.85,471.90"/>
    </edge>
    <edge id=":12994844383_0" function="internal">
        <lane id=":12994844383_0_0" index="0" disallow="pedestrian tram rail_urban rail rail_electric rail_fast ship" speed="13.89" length="0.10" shape="1404.96,499.74 1404.93,499.84"/>
    </edge>
    <edge id=":1307660987_0" function="internal">
        <lane id=":1307660987_0_0" index="0" disallow="tram rail_urban rail rail_electric rail_fast ship" speed="13.89" length="1.25" shape="1783.14,442.61 1781.90,442.52"/>
        <lane id=":1307660987_0_1" index="1" disallow="tram rail_urban rail rail_electric rail_fast ship" speed="13.89" length="1.25" shape="1782.91,445.81 1781.65,445.71"/>
    </edge>
    <edge id=":1307661022_0" function="internal">
        <lane id=":1307661022_0_0" index="0" disallow="tram rail_urban rail rail_electric rail_fast ship" speed="13.89" length="7.79" shape="1755.17,438.52 1757.42,438.94 1758.87,439.68 1760.32,440.43 1762.56,440.92"/>
        <lane id=":1307661022_0_1" index="1" disallow="tram rail_urban rail rail_electric rail_fast ship" speed="13.89" length="7.79" shape="1755.01,441.72 1757.22,442.13 1758.65,442.87 1760.08,443.63 1762.30,444.11"/>
    </edge>
    <edge id=":1307661022_2" function="internal">
        <lane id=":1307661022_2_0" index="0" disallow="tram rail_urban rail rail_electric rail_fast ship" speed="11.22" length="7.19" shape="1754.84,444.92 1756.91,445.17 1758.26,445.71 1759.48,446.61 1761.16,447.93"/>
    </edge>
    <edge id=":1307661036_0" function="internal">
        <lane id=":1307661036_0_0" index="0" disallow="tram rail_urban rail rail_electric rail_fast ship" speed="5.03" length="7.97" shape="1746.66,434.87 1745.68,436.22 1746.10,437.24 1747.93,437.94 1751.15,438.31"/>
    </edge>
    <edge id=":1307661036_1" function="internal">
        <lane id=":1307661036_1_0" index="0" disallow="tram rail_urban rail rail_electric rail_fast ship" speed="2.78" length="4.67" shape="1746.66,434.87 1745.24,435.08 1744.41,434.75 1744.17,433.89 1744.52,432.49"/>
    </edge>
    <edge id=":1307661036_2" function="internal">
        <lane id=":1307661036_2_0" index="0" disallow="tram rail_urban rail rail_electric rail_fast ship" speed="8.34" length="11.78" shape="1734.11,437.37 1736.51,437.18 1739.05,436.30 1741.72,434.74 1744.52,432.49"/>
    </edge>
    <edge id=":1307661036_3" function="internal">
        <lane id=":1307661036_3_0" index="0" disallow="tram rail_urban rail rail_electric rail_fast ship" speed="13.89" length="17.10" shape="1734.11,437.37 1751.15,438.31"/>
        <lane id=":1307661036_3_1" index="1" disallow="tram rail_urban rail rail_electric rail_fast ship" speed="13.89" length="17.10" shape="1733.90,440.56 1750.98,441.51"/>
        <lane id=":1307661036_3_2" index="2" disallow="tram rail_urban rail rail_electric rail_fast ship" speed="13.89" length="17.10" shape="1733.70,443.76 1750.81,444.70"/>
    </edge>
    <edge id=":1307661039_0" function="internal">
        <lane id=":1307661039_0_0" index="0" disallow="pedestrian tram rail_urban rail rail_electric rail_fast ship" speed="13.89" length="11.74" shape="1782.10,442.53 1793.76,443.38"/>
        <lane id=":1307661039_0_1" index="1" disallow="pedestrian tram rail_urban rail rail_electric rail_fast ship" speed="13.89" length="11.74" shape="1781.85,445.72 1793.60,446.58"/>
    </edge>
    <edge id=":1307661039_2" function="internal">
        <lane id=":1307661039_2_0" index="0" disallow="pedestrian tram rail_urban rail rail_electric rail_fast ship" speed="10.70" length="13.57" shape="1781.64,450.05 1784.35,447.00 1787.28,444.87 1790.41,443.67 1793.76,443.38"/>
        <lane id=":1307661039_2_1" index="1" disallow="pedestrian tram rail_urban rail rail_electric rail_fast ship" speed="9.33" length="13.57" shape="1783.48,453.12 1785.56,450.14 1787.94,448.05 1790.62,446.87 1793.60,446.58"/>
    </edge>
    <edge id=":1307690722_0" function="internal">
        <lane id=":1307690722_0_0" index="0" disallow="pedestrian tram rail_urban rail rail_electric rail_fast ship" speed="13.89" length="8.20" shape="1863.09,447.20 1865.49,447.15 1867.13,446.73 1868.76,446.31 1871.17,446.24"/>
        <lane id=":1307690722_0_1" index="1" disallow="pedestrian tram rail_urban rail rail_electric rail_fast ship" speed="13.89" length="8.20" shape="1863.09,447.20 1865.45,447.65 1867.01,448.33 1868.56,449.00 1870.93,449.43"/>
        <lane id=":1307690722_0_2" index="2" disallow="pedestrian tram rail_urban rail rail_electric rail_fast ship" speed="13.89" length="8.20" shape="1862.82,450.39 1865.20,450.84 1866.75,451.52 1868.31,452.19 1870.69,452.62"/>
    </edge>
    <edge id=":1307704384_0" function="internal">
        <lane id=":1307704384_0_0" index="0" allow="pedestrian bicycle" speed="2.78" length="2.92" width="2.00" shape="1926.98,454.78 1927.66,454.19 1928.20,454.08 1928.62,454.45 1928.90,455.31"/>
    </edge>
    <edge id=":1307822193_0" function="internal">
        <lane id=":1307822193_0_0" index="0" allow="pedestrian bicycle" speed="4.69" length="4.15" shape="1928.85,455.50 1928.82,456.34 1929.21,457.11 1930.01,457.81 1931.24,458.44"/>
    </edge>
    <edge id=":1307822193_1" function="internal">
        <lane id=":1307822193_1_0" index="0" allow="pedestrian bicycle" speed="2.78" length="7.44" width="2.00" shape="1928.85,455.50 1926.87,462.68"/>
    </edge>
    <edge id=":1307822193_2" function="internal">
        <lane id=":1307822193_2_0" index="0" allow="pedestrian bicycle" speed="2.78" length="2.39" width="2.00" shape="1928.85,455.50 1928.17,456.09 1927.62,456.20 1927.21,455.83 1927.09,455.47"/>
    </edge>
    <edge id=":1307822193_10" function="internal">
        <lane id=":1307822193_10_0" index="0" allow="pedestrian bicycle" speed="2.78" length="0.53" width="2.00" shape="1927.09,455.47 1926.92,454.97"/>
    </edge>
    <edge id=":1307822193_3" function="internal">
        <lane id=":1307822193_3_0" index="0" allow="bicycle" speed="4.29" length="3.41" width="2.00" shape="1924.04,455.84 1925.14,456.07 1925.98,455.99 1926.58,455.63 1926.92,454.97"/>
    </edge>
    <edge id=":1307822193_4" function="internal">
        <lane id=":1307822193_4_0" index="0" disallow="pedestrian tram rail_urban rail rail_electric rail_fast ship" speed="13.89" length="7.50" shape="1924.04,455.84 1926.22,456.51 1927.69,457.01 1929.14,457.57 1931.24,458.44"/>
        <lane id=":1307822193_4_1" index="1" disallow="pedestrian tram rail_urban rail rail_electric rail_fast ship" speed="13.89" length="7.50" shape="1923.11,458.90 1925.19,459.55 1926.61,460.02 1928.00,460.57 1930.01,461.40"/>
    </edge>
    <edge id=":1307822193_6" function="internal">
        <lane id=":1307822193_6_0" index="0" allow="bicycle" speed="5.45" length="5.90" width="2.00" shape="1923.11,458.90 1925.01,459.65 1926.27,460.52 1926.89,461.53 1926.87,462.68"/>
    </edge>
    <edge id=":1307822193_7" function="internal">
        <lane id=":1307822193_7_0" index="0" allow="pedestrian bicycle" speed="2.78" length="7.44" width="2.00" shape="1924.95,462.15 1926.92,454.97"/>
    </edge>
    <edge id=":1307822193_8" function="internal">
        <lane id=":1307822193_8_0" index="0" allow="pedestrian bicycle" speed="5.02" length="0.51" shape="1924.95,462.15 1925.20,461.70"/>
    </edge>
    <edge id=":1307822193_9" function="internal">
        <lane id=":1307822193_9_0" index="0" allow="pedestrian bicycle" speed="2.78" length="2.39" width="2.00" shape="1924.95,462.15 1925.63,461.56 1926.18,461.45 1926.59,461.82 1926.71,462.17"/>
    </edge>
    <edge id=":1307822193_11" function="internal">
        <lane id=":1307822193_11_0" index="0" allow="pedestrian bicycle" speed="5.02" length="5.34" shape="1925.20,461.70 1925.53,461.14 1926.57,460.68 1928.06,460.77 1930.01,461.40"/>
    </edge>
    <edge id=":1307822193_12" function="internal">
        <lane id=":1307822193_12_0" index="0" allow="pedestrian bicycle" speed="2.78" length="0.53" width="2.00" shape="1926.71,462.17 1926.87,462.68"/>
    </edge>
    <edge id=":13096013389_0" function="internal">
        <lane id=":13096013389_0_0" index="0" allow="pedestrian bicycle" speed="2.78" length="3.75" width="2.00" shape="1944.29,408.60 1944.16,404.85"/>
    </edge>
    <edge id=":13096013389_1" function="internal">
        <lane id=":13096013389_1_0" index="0" allow="pedestrian bicycle" speed="2.78" length="2.92" width="2.00" shape="1944.29,408.60 1944.77,407.84 1945.26,407.57 1945.77,407.81 1946.29,408.54"/>
    </edge>
    <edge id=":13096013389_2" function="internal">
        <lane id=":13096013389_2_0" index="0" allow="pedestrian bicycle" speed="2.78" length="3.76" width="2.00" shape="1946.16,404.79 1946.29,408.54"/>
    </edge>
    <edge id=":13096013389_3" function="internal">
        <lane id=":13096013389_3_0" index="0" allow="pedestrian bicycle" speed="2.78" length="2.92" width="2.00" shape="1946.16,404.79 1945.69,405.55 1945.20,405.82 1944.69,405.59 1944.16,404.85"/>
    </edge>
    <edge id=":13096013389_4" function="internal">
        <lane id=":13096013389_4_0" index="0" allow="bicycle" speed="3.23" length="3.29" width="2.00" shape="1941.72,405.86 1942.60,406.39 1943.22,406.40 1943.57,405.89 1943.66,404.87"/>
    </edge>
    <edge id=":13096013389_5" function="internal">
        <lane id=":13096013389_5_0" index="0" allow="bicycle" speed="5.55" length="5.72" width="2.00" shape="1941.72,405.86 1946.79,408.53"/>
    </edge>
    <edge id=":1325227225_0" function="internal">