<?xml version="1.0" encoding="UTF-8"?>
<routes xmlns:xsi="http://www.w3.org/2001/XMLSchema-instance" xsi:noNamespaceSchemaLocation="http://sumo.dlr.de/xsd/routes_file.xsd">

    <!-- Vehicle type -->
    <vType id="car" accel="2.6" decel="4.5" length="5.0" maxSpeed="50" sigma="0.5"/>

    <flow id="f0" from="bottom0A0" to="A0bottom0" begin="0" end="3600" vehsPerHour="28.6" type="car"/>
    <flow id="f1" from="bottom0A0" to="A0left0" begin="0" end="3600" vehsPerHour="28.6" type="car"/>
    <flow id="f2" from="bottom0A0" to="A1left1" begin="0" end="3600" vehsPerHour="28.6" type="car"/>
    <flow id="f3" from="bottom0A0" to="A2left2" begin="0" end="3600" vehsPerHour="28.6" type="car"/>
    <flow id="f4" from="bottom0A0" to="A2top0" begin="0" end="3600" vehsPerHour="28.6" type="car"/>
    <flow id="f5" from="bottom0A0" to="B0bottom1" begin="0" end="3600" vehsPerHour="28.6" type="car"/>
    <flow id="f6" from="bottom0A0" to="B2top1" begin="0" end="3600" vehsPerHour="28.6" type="car"/>
    <flow id="f7" from="bottom0A0" to="C0bottom2" begin="0" end="3600" vehsPerHour="28.6" type="car"/>
    <flow id="f8" from="bottom0A0" to="C2top2" begin="0" end="3600" vehsPerHour="28.6" type="car"/>
    <flow id="f9" from="bottom0A0" to="D0bottom3" begin="0" end="3600" vehsPerHour="28.6" type="car"/>
    <flow id="f10" from="bottom0A0" to="D0right0" begin="0" end="3600" vehsPerHour="28.6" type="car"/>
    <flow id="f11" from="bottom0A0" to="D1right1" begin="0" end="3600" vehsPerHour="28.6" type="car"/>
    <flow id="f12" from="bottom0A0" to="D2right2" begin="0" end="3600" vehsPerHour="28.6" type="car"/>
    <flow id="f13" from="bottom0A0" to="D2top3" begin="0" end="3600" vehsPerHour="28.6" type="car"/>
    <flow id="f14" from="bottom1B0" to="A0bottom0" begin="0" end="3600" vehsPerHour="28.6" type="car"/>
    <flow id="f15" from="bottom1B0" to="A0left0" begin="0" end="3600" vehsPerHour="28.6" type="car"/>
    <flow id="f16" from="bottom1B0" to="A1left1" begin="0" end="3600" vehsPerHour="28.6" type="car"/>
    <flow id="f17" from="bottom1B0" to="A2left2" begin="0" end="3600" vehsPerHour="28.6" type="car"/>
    <flow id="f18" from="bottom1B0" to="A2top0" begin="0" end="3600" vehsPerHour="28.6" type="car"/>
    <flow id="f19" from="bottom1B0" to="B0bottom1" begin="0" end="3600" vehsPerHour="28.6" type="car"/>
    <flow id="f20" from="bottom1B0" to="B2top1" begin="0" end="3600" vehsPerHour="28.6" type="car"/>
    <flow id="f21" from="bottom1B0" to="C0bottom2" begin="0" end="3600" vehsPerHour="28.6" type="car"/>
    <flow id="f22" from="bottom1B0" to="C2top2" begin="0" end="3600" vehsPerHour="28.6" type="car"/>
    <flow id="f23" from="bottom1B0" to="D0bottom3" begin="0" end="3600" vehsPerHour="28.6" type="car"/>
    <flow id="f24" from="bottom1B0" to="D0right0" begin="0" end="3600" vehsPerHour="28.6" type="car"/>
    <flow id="f25" from="bottom1B0" to="D1right1" begin="0" end="3600" vehsPerHour="28.6" type="car"/>
    <flow id="f26" from="bottom1B0" to="D2right2" begin="0" end="3600" vehsPerHour="28.6" type="car"/>
    <flow id="f27" from="bottom1B0" to="D2top3" begin="0" end="3600" vehsPerHour="28.6" type="car"/>
    <flow id="f28" from="bottom2C0" to="A0bottom0" begin="0" end="3600" vehsPerHour="28.6" type="car"/>
    <flow id="f29" from="bottom2C0" to="A0left0" begin="0" end="3600" vehsPerHour="28.6" type="car"/>
    <flow id="f30" from="bottom2C0" to="A1left1" begin="0" end="3600" vehsPerHour="28.6" type="car"/>
    <flow id="f31" from="bottom2C0" to="A2left2" begin="0" end="3600" vehsPerHour="28.6" type="car"/>
    <flow id="f32" from="bottom2C0" to="A2top0" begin="0" end="3600" vehsPerHour="28.6" type="car"/>
    <flow id="f33" from="bottom2C0" to="B0bottom1" begin="0" end="3600" vehsPerHour="28.6" type="car"/>
    <flow id="f34" from="bottom2C0" to="B2top1" begin="0" end="3600" vehsPerHour="28.6" type="car"/>
    <flow id="f35" from="bottom2C0" to="C0bottom2" begin="0" end="3600" vehsPerHour="28.6" type="car"/>
    <flow id="f36" from="bottom2C0" to="C2top2" begin="0" end="3600" vehsPerHour="28.6" type="car"/>
    <flow id="f37" from="bottom2C0" to="D0bottom3" begin="0" end="3600" vehsPerHour="28.6" type="car"/>
    <flow id="f38" from="bottom2C0" to="D0right0" begin="0" end="3600" vehsPerHour="28.6" type="car"/>
    <flow id="f39" from="bottom2C0" to="D1right1" begin="0" end="3600" vehsPerHour="28.6" type="car"/>
    <flow id="f40" from="bottom2C0" to="D2right2" begin="0" end="3600" vehsPerHour="28.6" type="car"/>
    <flow id="f41" from="bottom2C0" to="D2top3" begin="0" end="3600" vehsPerHour="28.6" type="car"/>
    <flow id="f42" from="bottom3D0" to="A0bottom0" begin="0" end="3600" vehsPerHour="28.6" type="car"/>
    <flow id="f43" from="bottom3D0" to="A0left0" begin="0" end="3600" vehsPerHour="28.6" type="car"/>
    <flow id="f44" from="bottom3D0" to="A1left1" begin="0" end="3600" vehsPerHour="28.6" type="car"/>
    <flow id="f45" from="bottom3D0" to="A2left2" begin="0" end="3600" vehsPerHour="28.6" type="car"/>
    <flow id="f46" from="bottom3D0" to="A2top0" begin="0" end="3600" vehsPerHour="28.6" type="car"/>
    <flow id="f47" from="bottom3D0" to="B0bottom1" begin="0" end="3600" vehsPerHour="28.6" type="car"/>
    <flow id="f48" from="bottom3D0" to="B2top1" begin="0" end="3600" vehsPerHour="28.6" type="car"/>
    <flow id="f49" from="bottom3D0" to="C0bottom2" begin="0" end="3600" vehsPerHour="28.6" type="car"/>
    <flow id="f50" from="bottom3D0" to="C2top2" begin="0" end="3600" vehsPerHour="28.6" type="car"/>
    <flow id="f51" from="bottom3D0" to="D0bottom3" begin="0" end="3600" vehsPerHour="28.6" type="car"/>
    <flow id="f52" from="bottom3D0" to="D0right0" begin="0" end="3600" vehsPerHour="28.6" type="car"/>
    <flow id="f53" from="bottom3D0" to="D1right1" begin="0" end="3600" vehsPerHour="28.6" type="car"/>
    <flow id="f54" from="bottom3D0" to="D2right2" begin="0" end="3600" vehsPerHour="28.6" type="car"/>
    <flow id="f55" from="bottom3D0" to="D2top3" begin="0" end="3600" vehsPerHour="28.6" type="car"/>
    <flow id="f56" from="left0A0" to="A0bottom0" begin="0" end="3600" vehsPerHour="28.6" type="car"/>
    <flow id="f57" from="left0A0" to="A0left0" begin="0" end="3600" vehsPerHour="28.6" type="car"/>
    <flow id="f58" from="left0A0" to="A1left1" begin="0" end="3600" vehsPerHour="28.6" type="car"/>
    <flow id="f59" from="left0A0" to="A2left2" begin="0" end="3600" vehsPerHour="28.6" type="car"/>
    <flow id="f60" from="left0A0" to="A2top0" begin="0" end="3600" vehsPerHour="28.6" type="car"/>
    <flow id="f61" from="left0A0" to="B0bottom1" begin="0" end="3600" vehsPerHour="28.6" type="car"/>
    <flow id="f62" from="left0A0" to="B2top1" begin="0" end="3600" vehsPerHour="28.6" type="car"/>
    <flow id="f63" from="left0A0" to="C0bottom2" begin="0" end="3600" vehsPerHour="28.6" type="car"/>
    <flow id="f64" from="left0A0" to="C2top2" begin="0" end="3600" vehsPerHour="28.6" type="car"/>
    <flow id="f65" from="left0A0" to="D0bottom3" begin="0" end="3600" vehsPerHour="28.6" type="car"/>
    <flow id="f66" from="left0A0" to="D0right0" begin="0" end="3600" vehsPerHour="28.6" type="car"/>
    <flow id="f67" from="left0A0" to="D1right1" begin="0" end="3600" vehsPerHour="28.6" type="car"/>
    <flow id="f68" from="left0A0" to="D2right2" begin="0" end="3600" vehsPerHour="28.6" type="car"/>
    <flow id="f69" from="left0A0" to="D2top3" begin="0" end="3600" vehsPerHour="28.6" type="car"/>
    <flow id="f70" from="left1A1" to="A0bottom0" begin="0" end="3600" vehsPerHour="28.6" type="car"/>
    <flow id="f71" from="left1A1" to="A0left0" begin="0" end="3600" vehsPerHour="28.6" type="car"/>
    <flow id="f72" from="left1A1" to="A1left1" begin="0" end="3600" vehsPerHour="28.6" type="car"/>
    <flow id="f73" from="left1A1" to="A2left2" begin="0" end="3600" vehsPerHour="28.6" type="car"/>
    <flow id="f74" from="left1A1" to="A2top0" begin="0" end="3600" vehsPerHour="28.6" type="car"/>
    <flow id="f75" from="left1A1" to="B0bottom1" begin="0" end="3600" vehsPerHour="28.6" type="car"/>
    <flow id="f76" from="left1A1" to="B2top1" begin="0" end="3600" vehsPerHour="28.6" type="car"/>
    <flow id="f77" from="left1A1" to="C0bottom2" begin="0" end="3600" vehsPerHour="28.6" type="car"/>
    <flow id="f78" from="left1A1" to="C2top2" begin="0" end="3600" vehsPerHour="28.6" type="car"/>
    <flow id="f79" from="left1A1" to="D0bottom3" begin="0" end="3600" vehsPerHour="28.6" type="car"/>
    <flow id="f80" from="left1A1" to="D0right0" begin="0" end="3600" vehsPerHour="28.6" type="car"/>
    <flow id="f81" from="left1A1" to="D1right1" begin="0" end="3600" vehsPerHour="28.6" type="car"/>
    <flow id="f82" from="left1A1" to="D2right2" begin="0" end="3600" vehsPerHour="28.6" type="car"/>
    <flow id="f83" from="left1A1" to="D2top3" begin="0" end="3600" vehsPerHour="28.6" type="car"/>
    <flow id="f84" from="left2A2" to="A0bottom0" begin="0" end="3600" vehsPerHour="28.6" type="car"/>
    <flow id="f85" from="left2A2" to="A0left0" begin="0" end="3600" vehsPerHour="28.6" type="car"/>
    <flow id="f86" from="left2A2" to="A1left1" begin="0" end="3600" vehsPerHour="28.6" type="car"/>
    <flow id="f87" from="left2A2" to="A2left2" begin="0" end="3600" vehsPerHour="28.6" type="car"/>
    <flow id="f88" from="left2A2" to="A2top0" begin="0" end="3600" vehsPerHour="28.6" type="car"/>
    <flow id="f89" from="left2A2" to="B0bottom1" begin="0" end="3600" vehsPerHour="28.6" type="car"/>
    <flow id="f90" from="left2A2" to="B2top1" begin="0" end="3600" vehsPerHour="28.6" type="car"/>
    <flow id="f91" from="left2A2" to="C0bottom2" begin="0" end="3600" vehsPerHour="28.6" type="car"/>
    <flow id="f92" from="left2A2" to="C2top2" begin="0" end="3600" vehsPerHour="28.6" type="car"/>
    <flow id="f93" from="left2A2" to="D0bottom3" begin="0" end="3600" vehsPerHour="28.6" type="car"/>
    <flow id="f94" from="left2A2" to="D0right0" begin="0" end="3600" vehsPerHour="28.6" type="car"/>
    <flow id="f95" from="left2A2" to="D1right1" begin="0" end="3600" vehsPerHour="28.6" type="car"/>
    <flow id="f96" from="left2A2" to="D2right2" begin="0" end="3600" vehsPerHour="28.6" type="car"/>
    <flow id="f97" from="left2A2" to="D2top3" begin="0" end="3600" vehsPerHour="28.6" type="car"/>
    <flow id="f98" from="right0D0" to="A0bottom0" begin="0" end="3600" vehsPerHour="28.6" type="car"/>
    <flow id="f99" from="right0D0" to="A0left0" begin="0" end="3600" vehsPerHour="28.6" type="car"/>
    <flow id="f100" from="right0D0" to="A1left1" begin="0" end="3600" vehsPerHour="28.6" type="car"/>
    <flow id="f101" from="right0D0" to="A2left2" begin="0" end="3600" vehsPerHour="28.6" type="car"/>
    <flow id="f102" from="right0D0" to="A2top0" begin="0" end="3600" vehsPerHour="28.6" type="car"/>
    <flow id="f103" from="right0D0" to="B0bottom1" begin="0" end="3600" vehsPerHour="28.6" type="car"/>
    <flow id="f104" from="right0D0" to="B2top1" begin="0" end="3600" vehsPerHour="28.6" type="car"/>
    <flow id="f105" from="right0D0" to="C0bottom2" begin="0" end="3600" vehsPerHour="28.6" type="car"/>
    <flow id="f106" from="right0D0" to="C2top2" begin="0" end="3600" vehsPerHour="28.6" type="car"/>
    <flow id="f107" from="right0D0" to="D0bottom3" begin="0" end="3600" vehsPerHour="28.6" type="car"/>
    <flow id="f108" from="right0D0" to="D0right0" begin="0" end="3600" vehsPerHour="28.6" type="car"/>
    <flow id="f109" from="right0D0" to="D1right1" begin="0" end="3600" vehsPerHour="28.6" type="car"/>
    <flow id="f110" from="right0D0" to="D2right2" begin="0" end="3600" vehsPerHour="28.6" type="car"/>
    <flow id="f111" from="right0D0" to="D2top3" begin="0" end="3600" vehsPerHour="28.6" type="car"/>
    <flow id="f112" from="right1D1" to="A0bottom0" begin="0" end="3600" vehsPerHour="28.6" type="car"/>
    <flow id="f113" from="right1D1" to="A0left0" begin="0" end="3600" vehsPerHour="28.6" type="car"/>
    <flow id="f114" from="right1D1" to="A1left1" begin="0" end="3600" vehsPerHour="28.6" type="car"/>
    <flow id="f115" from="right1D1" to="A2left2" begin="0" end="3600" vehsPerHour="28.6" type="car"/>
    <flow id="f116" from="right1D1" to="A2top0" begin="0" end="3600" vehsPerHour="28.6" type="car"/>
    <flow id="f117" from="right1D1" to="B0bottom1" begin="0" end="3600" vehsPerHour="28.6" type="car"/>
    <flow id="f118" from="right1D1" to="B2top1" begin="0" end="3600" vehsPerHour="28.6" type="car"/>
    <flow id="f119" from="right1D1" to="C0bottom2" begin="0" end="3600" vehsPerHour="28.6" type="car"/>
    <flow id="f120" from="right1D1" to="C2top2" begin="0" end="3600" vehsPerHour="28.6" type="car"/>
    <flow id="f121" from="right1D1" to="D0bottom3" begin="0" end="3600" vehsPerHour="28.6" type="car"/>
    <flow id="f122" from="right1D1" to="D0right0" begin="0" end="3600" vehsPerHour="28.6" type="car"/>
    <flow id="f123" from="right1D1" to="D1right1" begin="0" end="3600" vehsPerHour="28.6" type="car"/>
    <flow id="f124" from="right1D1" to="D2right2" begin="0" end="3600" vehsPerHour="28.6" type="car"/>
    <flow id="f125" from="right1D1" to="D2top3" begin="0" end="3600" vehsPerHour="28.6" type="car"/>
    <flow id="f126" from="right2D2" to="A0bottom0" begin="0" end="3600" vehsPerHour="28.6" type="car"/>
    <flow id="f127" from="right2D2" to="A0left0" begin="0" end="3600" vehsPerHour="28.6" type="car"/>
    <flow id="f128" from="right2D2" to="A1left1" begin="0" end="3600" vehsPerHour="28.6" type="car"/>
    <flow id="f129" from="right2D2" to="A2left2" begin="0" end="3600" vehsPerHour="28.6" type="car"/>
    <flow id="f130" from="right2D2" to="A2top0" begin="0" end="3600" vehsPerHour="28.6" type="car"/>
    <flow id="f131" from="right2D2" to="B0bottom1" begin="0" end="3600" vehsPerHour="28.6" type="car"/>
    <flow id="f132" from="right2D2" to="B2top1" begin="0" end="3600" vehsPerHour="28.6" type="car"/>
    <flow id="f133" from="right2D2" to="C0bottom2" begin="0" end="3600" vehsPerHour="28.6" type="car"/>
    <flow id="f134" from="right2D2" to="C2top2" begin="0" end="3600" vehsPerHour="28.6" type="car"/>
    <flow id="f135" from="right2D2" to="D0bottom3" begin="0" end="3600" vehsPerHour="28.6" type="car"/>
    <flow id="f136" from="right2D2" to="D0right0" begin="0" end="3600" vehsPerHour="28.6" type="car"/>
    <flow id="f137" from="right2D2" to="D1right1" begin="0" end="3600" vehsPerHour="28.6" type="car"/>
    <flow id="f138" from="right2D2" to="D2right2" begin="0" end="3600" vehsPerHour="28.6" type="car"/>
    <flow id="f139" from="right2D2" to="D2top3" begin="0" end="3600" vehsPerHour="28.6" type="car"/>
    <flow id="f140" from="top0A2" to="A0bottom0" begin="0" end="3600" vehsPerHour="28.6" type="car"/>
    <flow id="f141" from="top0A2" to="A0left0" begin="0" end="3600" vehsPerHour="28.6" type="car"/>
    <flow id="f142" from="top0A2" to="A1left1" begin="0" end="3600" vehsPerHour="28.6" type="car"/>
    <flow id="f143" from="top0A2" to="A2left2" begin="0" end="3600" vehsPerHour="28.6" type="car"/>
    <flow id="f144" from="top0A2" to="A2top0" begin="0" end="3600" vehsPerHour="28.6" type="car"/>
    <flow id="f145" from="top0A2" to="B0bottom1" begin="0" end="3600" vehsPerHour="28.6" type="car"/>
    <flow id="f146" from="top0A2" to="B2top1" begin="0" end="3600" vehsPerHour="28.6" type="car"/>
    <flow id="f147" from="top0A2" to="C0bottom2" begin="0" end="3600" vehsPerHour="28.6" type="car"/>
    <flow id="f148" from="top0A2" to="C2top2" begin="0" end="3600" vehsPerHour="28.6" type="car"/>
    <flow id="f149" from="top0A2" to="D0bottom3" begin="0" end="3600" vehsPerHour="28.6" type="car"/>
    <flow id="f150" from="top0A2" to="D0right0" begin="0" end="3600" vehsPerHour="28.6" type="car"/>
    <flow id="f151" from="top0A2" to="D1right1" begin="0" end="3600" vehsPerHour="28.6" type="car"/>
    <flow id="f152" from="top0A2" to="D2right2" begin="0" end="3600" vehsPerHour="28.6" type="car"/>
    <flow id="f153" from="top0A2" to="D2top3" begin="0" end="3600" vehsPerHour="28.6" type="car"/>
    <flow id="f154" from="top1B2" to="A0bottom0" begin="0" end="3600" vehsPerHour="28.6" type="car"/>
    <flow id="f155" from="top1B2" to="A0left0" begin="0" end="3600" vehsPerHour="28.6" type="car"/>
    <flow id="f156" from="top1B2" to="A1left1" begin="0" end="3600" vehsPerHour="28.6" type="car"/>
    <flow id="f157" from="top1B2" to="A2left2" begin="0" end="3600" vehsPerHour="28.6" type="car"/>
    <flow id="f158" from="top1B2" to="A2top0" begin="0" end="3600" vehsPerHour="28.6" type="car"/>
    <flow id="f159" from="top1B2" to="B0bottom1" begin="0" end="3600" vehsPerHour="28.6" type="car"/>
    <flow id="f160" from="top1B2" to="B2top1" begin="0" end="3600" vehsPerHour="28.6" type="car"/>
    <flow id="f161" from="top1B2" to="C0bottom2" begin="0" end="3600" vehsPerHour="28.6" type="car"/>
    <flow id="f162" from="top1B2" to="C2top2" begin="0" end="3600" vehsPerHour="28.6" type="car"/>
    <flow id="f163" from="top1B2" to="D0bottom3" begin="0" end="3600" vehsPerHour="28.6" type="car"/>
    <flow id="f164" from="top1B2" to="D0right0" begin="0" end="3600" vehsPerHour="28.6" type="car"/>
    <flow id="f165" from="top1B2" to="D1right1" begin="0" end="3600" vehsPerHour="28.6" type="car"/>
    <flow id="f166" from="top1B2" to="D2right2" begin="0" end="3600" vehsPerHour="28.6" type="car"/>
    <flow id="f167" from="top1B2" to="D2top3" begin="0" end="3600" vehsPerHour="28.6" type="car"/>
    <flow id="f168" from="top2C2" to="A0bottom0" begin="0" end="3600" vehsPerHour="28.6" type="car"/>
    <flow id="f169" from="top2C2" to="A0left0" begin="0" end="3600" vehsPerHour="28.6" type="car"/>
    <flow id="f170" from="top2C2" to="A1left1" begin="0" end="3600" vehsPerHour="28.6" type="car"/>
    <flow id="f171" from="top2C2" to="A2left2" begin="0" end="3600" vehsPerHour="28.6" type="car"/>
    <flow id="f172" from="top2C2" to="A2top0" begin="0" end="3600" vehsPerHour="28.6" type="car"/>
    <flow id="f173" from="top2C2" to="B0bottom1" begin="0" end="3600" vehsPerHour="28.6" type="car"/>
    <flow id="f174" from="top2C2" to="B2top1" begin="0" end="3600" vehsPerHour="28.6" type="car"/>
    <flow id="f175" from="top2C2" to="C0bottom2" begin="0" end="3600" vehsPerHour="28.6" type="car"/>
    <flow id="f176" from="top2C2" to="C2top2" begin="0" end="3600" vehsPerHour="28.6" type="car"/>
    <flow id="f177" from="top2C2" to="D0bottom3" begin="0" end="3600" vehsPerHour="28.6" type="car"/>
    <flow id="f178" from="top2C2" to="D0right0" begin="0" end="3600" vehsPerHour="28.6" type="car"/>
    <flow id="f179" from="top2C2" to="D1right1" begin="0" end="3600" vehsPerHour="28.6" type="car"/>
    <flow id="f180" from="top2C2" to="D2right2" begin="0" end="3600" vehsPerHour="28.6" type="car"/>
    <flow id="f181" from="top2C2" to="D2top3" begin="0" end="3600" vehsPerHour="28.6" type="car"/>
    <flow id="f182" from="top3D2" to="A0bottom0" begin="0" end="3600" vehsPerHour="28.6" type="car"/>
    <flow id="f183" from="top3D2" to="A0left0" begin="0" end="3600" vehsPerHour="28.6" type="car"/>
    <flow id="f184" from="top3D2" to="A1left1" begin="0" end="3600" vehsPerHour="28.6" type="car"/>
    <flow id="f185" from="top3D2" to="A2left2" begin="0" end="3600" vehsPerHour="28.6" type="car"/>
    <flow id="f186" from="top3D2" to="A2top0" begin="0" end="3600" vehsPerHour="28.6" type="car"/>
    <flow id="f187" from="top3D2" to="B0bottom1" begin="0" end="3600" vehsPerHour="28.6" type="car"/>
    <flow id="f188" from="top3D2" to="B2top1" begin="0" end="3600" vehsPerHour="28.6" type="car"/>
    <flow id="f189" from="top3D2" to="C0bottom2" begin="0" end="3600" vehsPerHour="28.6" type="car"/>
    <flow id="f190" from="top3D2" to="C2top2" begin="0" end="3600" vehsPerHour="28.6" type="car"/>
    <flow id="f191" from="top3D2" to="D0bottom3" begin="0" end="3600" vehsPerHour="28.6" type="car"/>
    <flow id="f192" from="top3D2" to="D0right0" begin="0" end="3600" vehsPerHour="28.6" type="car"/>
    <flow id="f193" from="top3D2" to="D1right1" begin="0" end="3600" vehsPerHour="28.6" type="car"/>
    <flow id="f194" from="top3D2" to="D2right2" begin="0" end="3600" vehsPerHour="28.6" type="car"/>
    <flow id="f195" from="top3D2" to="D2top3" begin="0" end="3600" vehsPerHour="28.6" type="car"/>
</routes>